/*--------------------------------*- C++ -*----------------------------------*\
  =========                 |
  \\      /  F ield         | OpenFOAM: The Open Source CFD Toolbox
   \\    /   O peration     | Website:  https://openfoam.org
    \\  /    A nd           | Version:  8
     \\/     M anipulation  |
\*---------------------------------------------------------------------------*/
FoamFile
{
    version     2.0;
    format      ascii;
    class       dictionary;
    location    "system";
    object      controlDict;
}
// * * * * * * * * * * * * * * * * * * * * * * * * * * * * * * * * * * * * * //

<<<<<<< HEAD
#include    "$FOAM_CASE/constant/fieldsValues"
=======
#include    "$FOAM_CASE/constant/initialConditions"
>>>>>>> ea60bfa93e61337fec420f36a047d8654fa0de64

application     simpleFoam;

startFrom       startTime;

startTime       0;

stopAt          endTime;

<<<<<<< HEAD
endTime         17000;
=======
endTime         1000;
>>>>>>> ea60bfa93e61337fec420f36a047d8654fa0de64

deltaT          1;

writeControl    timeStep;

<<<<<<< HEAD
writeInterval   500;
=======
writeInterval   $endTime;
>>>>>>> ea60bfa93e61337fec420f36a047d8654fa0de64

purgeWrite      4;

writeFormat     ascii;

writePrecision  6;

writeCompression off;

timeFormat      general;

timePrecision   6;

runTimeModifiable true;



functions
  {
    #includeFunc  residuals

<<<<<<< HEAD
    //#includeFunc  streamlines

=======
>>>>>>> ea60bfa93e61337fec420f36a047d8654fa0de64
    wallShearStress
    {
        type            wallShearStress;
        functionObjectLibs ("libfieldFunctionObjects.so");
<<<<<<< HEAD
        writeControl    outputTime;
=======
        writeControl    writeTime;
        timeStart       $endTime;
>>>>>>> ea60bfa93e61337fec420f36a047d8654fa0de64
    }

    vorticity
    {
        type            vorticity;
        libs            ("libfieldFunctionObjects.so");
<<<<<<< HEAD
        writeControl    outputTime;
=======
        writeControl    writeTime;
        timeStart       $endTime;
>>>>>>> ea60bfa93e61337fec420f36a047d8654fa0de64
    }

    cf
    {
      type    scale;
      libs    ("libfieldFunctionObjects.so");
<<<<<<< HEAD
      writeControl    outputTime;
      field   wallShearStress;
      scale   $factor_adim;
      result  cf;
      patches ("fixedWalls");
=======
      writeControl    writeTime;
      timeStart       $endTime;
      field   wallShearStress;
      scale   $factor_adim;
      result  cf;
>>>>>>> ea60bfa93e61337fec420f36a047d8654fa0de64
    }

    cp
    {
      type    scale;
      libs    ("libfieldFunctionObjects.so");
<<<<<<< HEAD
      writeControl    outputTime;
=======
      writeControl    writeTime;
      timeStart       $endTime;
>>>>>>> ea60bfa93e61337fec420f36a047d8654fa0de64
      field   p;
      scale   $factor_adim;
      result  cp;
    }

    #include "samples"
    
  }

// ************************************************************************* //
