/*--------------------------------*- C++ -*----------------------------------*\
  =========                 |
  \\      /  F ield         | OpenFOAM: The Open Source CFD Toolbox
   \\    /   O peration     | Website:  https://openfoam.org
    \\  /    A nd           | Version:  8
     \\/     M anipulation  |
\*---------------------------------------------------------------------------*/
FoamFile
{
    version     2.0;
    format      ascii;
    class       dictionary;
    location    "system";
    object      controlDict;
}
// * * * * * * * * * * * * * * * * * * * * * * * * * * * * * * * * * * * * * //

#include    "$FOAM_CASE/constant/fieldsValues"

application     simpleFoam;

startFrom       startTime;

startTime       0;

stopAt          endTime;

endTime         17000;

deltaT          1;

writeControl    timeStep;

writeInterval   500;

purgeWrite      4;

writeFormat     ascii;

writePrecision  6;

writeCompression off;

timeFormat      general;

timePrecision   6;

runTimeModifiable true;



functions
  {
    #includeFunc  residuals

    //#includeFunc  streamlines

    wallShearStress
    {
        type            wallShearStress;
        functionObjectLibs ("libfieldFunctionObjects.so");
        writeControl    outputTime;
    }

    vorticity
    {
        type            vorticity;
        libs            ("libfieldFunctionObjects.so");
        writeControl    outputTime;
    }

    cf
    {
      type    scale;
      libs    ("libfieldFunctionObjects.so");
      writeControl    outputTime;
      field   wallShearStress;
      scale   $factor_adim;
      result  cf;
      patches ("fixedWalls");
    }

    cp
    {
      type    scale;
      libs    ("libfieldFunctionObjects.so");
      writeControl    outputTime;
      field   p;
      scale   $factor_adim;
      result  cp;
    }

    #include "samples"
    
  }

// ************************************************************************* //
