/*--------------------------------*- C++ -*----------------------------------*\
  =========                 |
  \\      /  F ield         | OpenFOAM: The Open Source CFD Toolbox
   \\    /   O peration     | Website:  https://openfoam.org
    \\  /    A nd           | Version:  8
     \\/     M anipulation  |
\*---------------------------------------------------------------------------*/
FoamFile
{
    version     2.0;
    format      ascii;
    class       dictionary;
    location    "system";
    object      fvSolution;
}
// * * * * * * * * * * * * * * * * * * * * * * * * * * * * * * * * * * * * * //

solvers
{
    p
    {
        solver          GAMG;
        tolerance       1e-12;
        relTol          0.01;
        smoother        DICGaussSeidel;
    }

    U
    {
        solver          smoothSolver;
        smoother        symGaussSeidel;
        tolerance       1e-12;
        relTol          0.01;
    }

}

SIMPLE
{
    nNonOrthogonalCorrectors 0;
    consistent      yes;
    residualControl
    {
        p               1e-8;
        U               1e-8;
    }
}


relaxationFactors
{
    fields
    {
        p               0.7;
    }
    equations
    {
        U               0.95;
    }
}


// ************************************************************************* //
